*Heading
** Job name: cfrp-fixture Model name: Model-1
** Generated by: Abaqus/CAE 2020
*Preprint, echo=NO, model=NO, history=NO, contact=NO
**
** PARTS
**
*Part, name=FIXTURE
*Node
      1,         250.,   58.3012695,           0.
      2,         230.,   58.3012695,           0.
      3,         230.,   49.6410179,           0.
      4,         250.,   49.6410179,           0.
      5,         220.,   58.3012695,           0.
      6,         220.,   54.6410179,           0.
      7,         225.,   49.6410179,           0.
      8,         210.,   58.3012695,           0.
      9,         210.,   49.6410179,           0.
     10,         215.,   49.6410179,           0.
     11,         200.,   58.3012695,           0.
     12,         200.,   54.6410179,           0.
     13,         205.,   49.6410179,           0.
     14,         190.,   58.3012695,           0.
     15,         190.,   49.6410179,           0.
     16,         195.,   49.6410179,           0.
     17,         180.,   58.3012695,           0.
     18,         180.,   54.6410179,           0.
     19,         185.,   49.6410179,           0.
     20,         170.,   58.3012695,           0.
** ... 17410 like lines cut
*Element, type=S4R
  1,    2,  341, 4435,  340
  2,  341,  342, 4436, 4435
  3,  342,  343, 4437, 4436
  4,  343,  344, 4438, 4437
  5,  344,  345, 4439, 4438
  6,  345,  346, 4440, 4439
  7,  346,  347, 4441, 4440
  8,  347,    3,  348, 4441
  9,  340, 4435, 4442,  339
 10, 4435, 4436, 4443, 4442
 11, 4436, 4437, 4444, 4443
 12, 4437, 4438, 4445, 4444
 13, 4438, 4439, 4446, 4445
 14, 4439, 4440, 4447, 4446
 15, 4440, 4441, 4448, 4447
 16, 4441,  348,  349, 4448
 17,  339, 4442, 4449,  338
 18, 4442, 4443, 4450, 4449
 19, 4443, 4444, 4451, 4450
 20, 4444, 4445, 4452, 4451
** ... 16552 like lines cut
*Element, type=S3
171, 4494, 4502, 4501
1535, 5517, 5525, 5524
3319, 6824, 6832, 6831
4639, 7828, 7837, 7836
4789, 7939, 7947, 7946
6487, 9147, 9156, 9155
6762, 9374, 9383, 9382
7046, 9609, 9618, 9617
7330, 9844, 9853, 9852
7614, 10079, 10088, 10087
7898, 10314, 10323, 10322
8182, 10549, 10558, 10557
8466, 10784, 10793, 10792
8750, 11019, 11028, 11027
9034, 11254, 11263, 11262
9916, 11977, 11986, 11985
10224, 12237, 12246, 12245
10498, 12463, 12472, 12471
10772, 12689, 12698, 12697
11047, 12916, 12925, 12924
** ... 18 like lines cut
*Nset, nset=ALL, generate
     1,  17430,      1
*Elset, elset=ALL, generate
     1,  16610,      1
*Nset, nset=LEFT
   71,   72,  139,  203,  205,  212,  215,  317,  320,  945,  946,  947,  948,  949,  950,  951
  952, 1564, 1565, 1566, 1567, 1568, 1569, 1570, 1571, 2152, 2153, 2154, 2155, 2156, 2157, 2158
 2159, 2254, 2255, 2256, 2257, 2258, 2259, 2260, 2261, 3503, 3504, 3505, 3506, 3507, 3508, 3509
 3510, 3827, 3828, 3829, 3830, 3831, 3832, 3833, 3834, 4151, 4152, 4153, 4154, 4155, 4295, 4296
 4297, 4298, 4299, 4300, 4301, 4302, 4303, 4304, 4305, 4306, 4307, 4308, 4309, 4310, 4311, 4312
 4313, 4314, 4315
*Elset, elset=LEFT
  1526,  1527,  1528,  1529,  1530,  1531,  1532,  1533,  1534,  2970,  2980,  2990,  3000,  3010,  3020,  3030
  3040,  3050,  4401,  4411,  4421,  4431,  4441,  4451,  4461,  4471,  4481,  4780,  4781,  4782,  4783,  4784
  4785,  4786,  4787,  4788,  9446,  9456,  9466,  9476,  9486,  9496,  9506,  9516,  9526, 12645, 12655, 12665
 12675, 12685, 12695, 12705, 12715, 12725, 14211, 14221, 14231, 14241, 14251, 14261, 15122, 15132, 15142, 15152
 15162, 15172, 15182, 15192, 15202, 15212, 15222, 15232, 15242, 15252, 15262, 15272, 15282, 15292, 15302, 15312
 15322, 15332
*Elset, elset=_RIGHT_E3, internal
  162,  163,  164,  165,  166,  167,  168,  169,  170, 3310, 3311, 3312, 3313, 3314, 3315, 3316
 3317, 3318
*Elset, elset=_RIGHT_E4, internal
 1536, 1556, 1576, 1596, 1616, 1636, 1656, 1676, 1696, 6158, 6178, 6198, 6218, 6238, 6258
*Elset, elset=_RIGHT_E2, internal
  9128,  9148,  9168,  9188,  9208,  9228,  9248,  9268,  9288,  9546,  9566,  9586,  9606,  9626,  9646,  9666
  9686,  9706, 12745, 12765, 12785, 12805, 12825, 12845, 12865, 12885, 12905, 16190, 16210, 16230, 16250, 16270
 16290, 16310, 16330, 16350, 16370, 16390, 16410, 16430, 16450, 16470, 16490, 16510, 16530, 16550, 16570, 16590
 16610,
*Surface, type=ELEMENT, name=RIGHT
_RIGHT_E3, E3
_RIGHT_E4, E4
_RIGHT_E2, E2
** Region: (CompositeLayup-1-1: Generated From Layup)
*Elset, elset=CompositeLayup-1-1, generate
     1,  16610,      1
** Section: CompositeLayup-1-1
*Shell Section, elset=CompositeLayup-1-1, composite, layup=CompositeLayup-1, symmetric
0.2, 3, CFRP, 0., Ply-1
0.2, 3, CFRP, 45., Ply-2
0.2, 3, CFRP, -45., Ply-3
0.2, 3, CFRP, 90., Ply-4
*End Part
**  
**
** ASSEMBLY
**
*Assembly, name=Assembly
**  
*Instance, name=FIXTURE-1, part=FIXTURE
*End Instance
**  
*End Assembly
** 
** MATERIALS
** 
*Material, name=CFRP
*Elastic, type=LAMINA
137100., 8800., 0.314, 4900., 4900., 2960.
*User Output Variables
      1,
** ----------------------------------------------------------------
** 
** STEP: Step-1
** 
*Step, name=Step-1, nlgeom=NO
*Static
1., 1., 1e-05, 1.
** 
** BOUNDARY CONDITIONS
** 
** Name: BC-Left Type: Symmetry/Antisymmetry/Encastre
*Boundary
FIXTURE-1.LEFT, ENCASTRE
** 
** LOADS
** 
** Name: Load-1   Type: Shell edge load Using Field: AnalyticalField-1
*Dload
FIXTURE-1.162, EDNOR3, 104.693
FIXTURE-1.163, EDNOR3, 99.0401
FIXTURE-1.164, EDNOR3, 93.3869
FIXTURE-1.165, EDNOR3, 87.7337
FIXTURE-1.166, EDNOR3, 82.0805
FIXTURE-1.167, EDNOR3, 76.4272
FIXTURE-1.168, EDNOR3, 70.774
FIXTURE-1.169, EDNOR3, 65.1208
FIXTURE-1.170, EDNOR3, 59.4676
FIXTURE-1.1536, EDNOR4, 2.93537
FIXTURE-1.1556, EDNOR4, -2.71785
FIXTURE-1.1576, EDNOR4, -8.37107
FIXTURE-1.1596, EDNOR4, -14.0243
FIXTURE-1.1616, EDNOR4, -19.6775
FIXTURE-1.1636, EDNOR4, -25.3307
FIXTURE-1.1656, EDNOR4, -30.984
FIXTURE-1.1676, EDNOR4, -36.6372
FIXTURE-1.1696, EDNOR4, -42.2904
FIXTURE-1.3310, EDNOR3, -98.8226
FIXTURE-1.3311, EDNOR3, -104.476
** ... 62 like lines cut
** 
** OUTPUT REQUESTS
** 
*Restart, write, frequency=0
** 
** FIELD OUTPUT: F-Output-2
** 
*Output, field
*Node Output
U, 
** 
** FIELD OUTPUT: F-Output-1
** 
*Element Output, elset=FIXTURE-1.CompositeLayup-1-1, directions=YES
2, 5, 8, 11, 14, 17, 20, 23
LE, S, UVARM
** 
** HISTORY OUTPUT: H-Output-1
** 
*Output, history, variable=PRESELECT
*End Step
